Version 4
SHEET 1 2904 1380
WIRE 256 -192 256 -224
WIRE 400 -192 368 -192
WIRE 496 -192 480 -192
WIRE 240 -96 112 -96
WIRE 256 -96 256 -112
WIRE 256 -96 240 -96
WIRE 272 -96 256 -96
WIRE 368 -96 368 -192
WIRE 368 -96 352 -96
WIRE 384 -96 368 -96
WIRE -608 -80 -608 -112
WIRE 496 -80 496 -192
WIRE 496 -80 448 -80
WIRE 384 -64 336 -64
WIRE 560 -32 560 -80
WIRE -704 0 -720 0
WIRE -608 0 -624 0
WIRE -576 0 -608 0
WIRE -432 0 -496 0
WIRE -352 0 -432 0
WIRE -256 0 -288 0
WIRE 240 0 240 -16
WIRE 384 32 384 16
WIRE -432 64 -432 0
WIRE 560 64 560 48
WIRE -720 112 -720 80
WIRE 336 112 336 -64
WIRE 384 112 336 112
WIRE -704 128 -720 112
WIRE 336 192 336 176
WIRE 384 192 384 112
WIRE 384 288 384 272
WIRE -672 608 -816 608
WIRE -496 608 -672 608
WIRE -32 608 -240 608
WIRE 48 608 -32 608
WIRE -816 640 -816 608
WIRE -32 656 -32 608
WIRE -672 672 -672 608
WIRE -816 736 -816 720
WIRE -672 800 -672 736
WIRE -368 800 -368 704
WIRE -368 800 -672 800
WIRE -32 800 -32 720
WIRE -32 800 -368 800
WIRE -368 848 -368 800
FLAG -720 112 0
FLAG -368 848 0
FLAG -816 736 0
FLAG 48 608 5V
IOPIN 48 608 Out
FLAG -432 128 0
FLAG -608 -192 0
FLAG -256 0 Vin
IOPIN -256 0 Out
FLAG 384 288 0
FLAG 384 16 5V
IOPIN 384 16 Out
FLAG 416 -48 0
FLAG 416 -112 5V
IOPIN 416 -112 Out
FLAG 240 0 0
FLAG 256 -224 5V
IOPIN 256 -224 Out
FLAG 336 192 0
FLAG 560 64 0
FLAG 112 -96 Vin
IOPIN 112 -96 Out
SYMBOL voltage -720 -16 R0
WINDOW 3 -79 167 Left 2
WINDOW 123 -33 189 Left 2
WINDOW 39 0 0 Left 0
SYMATTR Value SINE(0.1 0.01 2000)
SYMATTR Value2 AC 0
SYMATTR InstName V1
SYMBOL PowerProducts\\LT1086-5 -368 608 R0
SYMATTR InstName U4
SYMBOL cap -48 656 R0
SYMATTR InstName C10
SYMATTR Value 10µ
SYMBOL cap -688 672 R0
SYMATTR InstName C11
SYMATTR Value 10µ
SYMBOL Misc\\battery -816 624 R0
WINDOW 123 0 0 Left 0
WINDOW 39 0 0 Left 0
SYMATTR InstName V7
SYMATTR Value 9
SYMBOL res -480 -16 R90
WINDOW 0 0 56 VBottom 2
WINDOW 3 32 56 VTop 2
SYMATTR InstName R1
SYMATTR Value 1k
SYMBOL cap -448 64 R0
SYMATTR InstName C1
SYMATTR Value 10n
SYMBOL voltage -608 -96 R180
WINDOW 0 24 96 Left 2
WINDOW 3 -159 149 Left 2
WINDOW 123 0 0 Left 0
WINDOW 39 0 0 Left 0
SYMATTR InstName V13
SYMATTR Value SINE(0.1 0.001 100000)
SYMBOL res -608 -16 R90
WINDOW 0 0 56 VBottom 2
WINDOW 3 32 56 VTop 2
SYMATTR InstName R5
SYMATTR Value 1m
SYMBOL res 496 -208 R90
WINDOW 0 0 56 VBottom 2
WINDOW 3 32 56 VTop 2
SYMATTR InstName R25
SYMATTR Value 400K
SYMBOL res 368 16 R0
SYMATTR InstName R26
SYMATTR Value 200k
SYMBOL res 368 176 R0
SYMATTR InstName R27
SYMATTR Value 200k
SYMBOL res 368 -112 R90
WINDOW 0 -9 63 VBottom 2
WINDOW 3 -12 56 VTop 2
SYMATTR InstName R28
SYMATTR Value 1K
SYMBOL Opamps\\UniversalOpamp2 416 -80 R0
SYMATTR InstName U8
SYMBOL res 224 -112 R0
WINDOW 0 35 100 Left 2
WINDOW 3 47 128 Left 2
SYMATTR InstName R31
SYMATTR Value 100k
SYMBOL res 240 -208 R0
WINDOW 3 41 19 Left 2
SYMATTR Value 100k
SYMATTR InstName R32
SYMBOL cap 320 112 R0
SYMATTR InstName C12
SYMATTR Value 10µ
SYMBOL cap 560 -96 R90
WINDOW 0 0 32 VBottom 2
WINDOW 3 32 32 VTop 2
SYMATTR InstName C13
SYMATTR Value 10µ
SYMBOL res 544 -48 R0
SYMATTR InstName R33
SYMATTR Value 22.22k
SYMBOL res -592 16 R180
WINDOW 0 36 76 Left 2
WINDOW 3 36 40 Left 2
SYMATTR InstName R14
SYMATTR Value 1m
SYMBOL cap -288 -16 R90
WINDOW 0 0 32 VBottom 2
WINDOW 3 32 32 VTop 2
SYMATTR InstName C3
SYMATTR Value 10µ
TEXT -1272 -136 Left 2 !.tran 0 0.01 0 0.00001
TEXT -800 -376 Left 2 ;LOWPASS FILTER 8KHz 3dB cuttoff
TEXT -80 -368 Left 2 ;Differential Amplifier Circuit for IF OUTPUT XXX GAIN
TEXT -824 472 Left 2 ;Power Supply Fixed 5V 1.5A
TEXT -1384 -232 Left 2 ;Simulation
LINE Normal 144 912 144 496 2
LINE Normal -880 912 144 912 2
LINE Normal -880 496 -880 912 2
LINE Normal 144 496 -880 496 2
RECTANGLE Normal -912 -48 -1392 -208 2
RECTANGLE Normal 736 416 -80 -336 2
RECTANGLE Normal -160 224 -880 -336 2
