Version 4
SHEET 1 2904 1380
WIRE 672 -176 672 -208
WIRE 816 -176 784 -176
WIRE 912 -176 896 -176
WIRE -608 -80 -608 -112
WIRE 656 -80 528 -80
WIRE 672 -80 672 -96
WIRE 672 -80 656 -80
WIRE 688 -80 672 -80
WIRE 784 -80 784 -176
WIRE 784 -80 768 -80
WIRE 800 -80 784 -80
WIRE 912 -64 912 -176
WIRE 912 -64 864 -64
WIRE 800 -48 752 -48
WIRE 976 -16 976 -64
WIRE -704 0 -720 0
WIRE -608 0 -624 0
WIRE -576 0 -608 0
WIRE -432 0 -496 0
WIRE -400 0 -432 0
WIRE -256 0 -320 0
WIRE -160 0 -192 0
WIRE 656 16 656 0
WIRE 800 48 800 32
WIRE -432 64 -432 0
WIRE -256 64 -256 0
WIRE 976 80 976 64
WIRE -720 112 -720 80
WIRE -704 128 -720 112
WIRE 752 128 752 -48
WIRE 800 128 752 128
WIRE 752 208 752 192
WIRE 800 208 800 128
WIRE 800 304 800 288
WIRE -672 608 -816 608
WIRE -496 608 -672 608
WIRE -32 608 -240 608
WIRE 48 608 -32 608
WIRE -816 640 -816 608
WIRE -32 656 -32 608
WIRE -672 672 -672 608
WIRE -816 736 -816 720
WIRE -672 800 -672 736
WIRE -368 800 -368 704
WIRE -368 800 -672 800
WIRE -32 800 -32 720
WIRE -32 800 -368 800
WIRE -368 848 -368 800
FLAG -720 112 0
FLAG -368 848 0
FLAG -816 736 0
FLAG 48 608 5V
IOPIN 48 608 Out
FLAG -432 128 0
FLAG -608 -192 0
FLAG -160 0 Vin
IOPIN -160 0 Out
FLAG 800 304 0
FLAG 800 32 5V
IOPIN 800 32 Out
FLAG 832 -32 0
FLAG 832 -96 5V
IOPIN 832 -96 Out
FLAG 656 16 0
FLAG 672 -208 5V
IOPIN 672 -208 Out
FLAG 752 208 0
FLAG 976 80 0
FLAG 528 -80 Vin
IOPIN 528 -80 Out
FLAG -256 128 0
SYMBOL voltage -720 -16 R0
WINDOW 3 -79 167 Left 2
WINDOW 123 -33 189 Left 2
WINDOW 39 0 0 Left 0
SYMATTR Value SINE(0.1 0.01 2000)
SYMATTR Value2 AC 0
SYMATTR InstName V1
SYMBOL PowerProducts\\LT1086-5 -368 608 R0
SYMATTR InstName U4
SYMBOL cap -48 656 R0
SYMATTR InstName C10
SYMATTR Value 10µ
SYMBOL cap -688 672 R0
SYMATTR InstName C11
SYMATTR Value 10µ
SYMBOL Misc\\battery -816 624 R0
WINDOW 123 0 0 Left 0
WINDOW 39 0 0 Left 0
SYMATTR InstName V7
SYMATTR Value 9
SYMBOL res -480 -16 R90
WINDOW 0 0 56 VBottom 2
WINDOW 3 32 56 VTop 2
SYMATTR InstName R1
SYMATTR Value 1k
SYMBOL cap -448 64 R0
SYMATTR InstName C1
SYMATTR Value 10n
SYMBOL voltage -608 -96 R180
WINDOW 0 24 96 Left 2
WINDOW 3 -159 149 Left 2
WINDOW 123 0 0 Left 0
WINDOW 39 0 0 Left 0
SYMATTR InstName V13
SYMATTR Value SINE(0.1 0.001 100000)
SYMBOL res -608 -16 R90
WINDOW 0 0 56 VBottom 2
WINDOW 3 32 56 VTop 2
SYMATTR InstName R5
SYMATTR Value 1m
SYMBOL res 912 -192 R90
WINDOW 0 0 56 VBottom 2
WINDOW 3 32 56 VTop 2
SYMATTR InstName R25
SYMATTR Value 400K
SYMBOL res 784 32 R0
SYMATTR InstName R26
SYMATTR Value 200k
SYMBOL res 784 192 R0
SYMATTR InstName R27
SYMATTR Value 200k
SYMBOL res 784 -96 R90
WINDOW 0 -9 63 VBottom 2
WINDOW 3 -12 56 VTop 2
SYMATTR InstName R28
SYMATTR Value 1K
SYMBOL Opamps\\UniversalOpamp2 832 -64 R0
SYMATTR InstName U8
SYMBOL res 640 -96 R0
WINDOW 0 35 100 Left 2
WINDOW 3 47 128 Left 2
SYMATTR InstName R31
SYMATTR Value 100k
SYMBOL res 656 -192 R0
WINDOW 3 41 19 Left 2
SYMATTR Value 100k
SYMATTR InstName R32
SYMBOL cap 736 128 R0
SYMATTR InstName C12
SYMATTR Value 10µ
SYMBOL cap 976 -80 R90
WINDOW 0 0 32 VBottom 2
WINDOW 3 32 32 VTop 2
SYMATTR InstName C13
SYMATTR Value 10µ
SYMBOL res 960 -32 R0
SYMATTR InstName R33
SYMATTR Value 22.22k
SYMBOL res -592 16 R180
WINDOW 0 36 76 Left 2
WINDOW 3 36 40 Left 2
SYMATTR InstName R14
SYMATTR Value 1m
SYMBOL cap -192 -16 R90
WINDOW 0 0 32 VBottom 2
WINDOW 3 32 32 VTop 2
SYMATTR InstName C3
SYMATTR Value 10µ
SYMBOL res -304 -16 R90
WINDOW 0 0 56 VBottom 2
WINDOW 3 32 56 VTop 2
SYMATTR InstName R2
SYMATTR Value 1k
SYMBOL cap -272 64 R0
SYMATTR InstName C2
SYMATTR Value 10n
TEXT -1272 -136 Left 2 !.tran 0 0.01 0 0.00001
TEXT -800 -376 Left 2 ;LOWPASS FILTER 8KHz 3dB cuttoff
TEXT 336 -352 Left 2 ;Differential Amplifier Circuit for IF OUTPUT XXX GAIN
TEXT -824 472 Left 2 ;Power Supply Fixed 5V 1.5A
TEXT -1384 -232 Left 2 ;Simulation
LINE Normal 144 912 144 496 2
LINE Normal -880 912 144 912 2
LINE Normal -880 496 -880 912 2
LINE Normal 144 496 -880 496 2
RECTANGLE Normal -912 -48 -1392 -208 2
RECTANGLE Normal 1152 432 336 -320 2
